** sch_path: /home/alex/mbkmpolytron/opamp1/mag/nmoscs.sch
.subckt nmoscs D3 D4 RS GND
*.PININFO RS:B D3:B D4:B GND:B
XM4 D4 D3 RS GND sky130_fd_pr__nfet_01v8 L=1 W=2 nf=1 m=2
XM3 D3 D3 GND GND sky130_fd_pr__nfet_01v8 L=1 W=2 nf=1 m=2
XM1 D3 D3 D3 GND sky130_fd_pr__nfet_01v8 L=0.15 W=2 nf=1 m=2
XM2 D4 D4 D4 GND sky130_fd_pr__nfet_01v8 L=0.15 W=2 nf=1 m=2
.ends
.end
